tests/fixtures/dss/cluster_mini/RJO002/SegmentosMT_202608382_RJO002_------1-----.dss
New "Line.SMT_SEG004" phases=3 bus1="RJO002_MT_1.1.2.3" bus2="RJO002_MT_2.1.2.3" linecode="CA_50_3" length=0.103000000 units=km
New "Line.SMT_SEG005" phases=3 bus1="RJO002_MT_3.1.2.3" bus2="RJO002_MT_4.1.2.3" linecode="CA_50_3" length=0.103000000 units=km
New "Line.SMT_SEG007" phases=3 bus1="RJO002_MT_4.1.2.3" bus2="RJO002_MT_5.1.2.3" linecode="CA_50_3" length=0.196000000 units=km
New "Line.SMT_SEG008" phases=3 bus1="RJO002_MT_4.1.2.3" bus2="RJO002_MT_6.1.2.3" linecode="CA_50_3" length=0.276000000 units=km
